Cases/case3012wp.py
from numpy import array

def case3012wp():

    ## PYPOWER Case Format : Version 2
    ppc = {'version': '2'}

    ##-----  Power Flow Data  -----##
    ## system MVA base
    ppc['baseMVA'] = 100

    ## bus data
    # bus_i type Pd Qd Gs Bs area Vm Va baseKV zone Vmax Vmin
    ppc['bus'] = array([
        [1, 1, 0, 0, 0, 0, 1, 1.10687, -0.31071, 220, 1, 1.11, 0.95],
        [2, 1, 0, 0, 0, 0, 1, 1.10786, 1.38118, 220, 1, 1.11, 0.95],
        [3, 1, 0, 0, 0, 0, 1, 1.06622, -30.75479, 220, 1, 1.11, 0.95],
        [4, 1, 0, 0, 0, 0, 1, 1.06616, -30.76377, 220, 1, 1.11, 0.95],
        [5, 1, 0, 0, 0, 0, 1, 1.07733, -32.99749, 220, 1, 1.11, 0.95],
        [6, 1, 0, 0, 0, 0, 1, 1.07571, -6.07319, 220, 1, 1.11, 0.95],
        [7, 1, 0, 0, 0, 0, 1, 1.07568, -6.07443, 220, 1, 1.11, 0.95],
        [8, 1, 0, 0, 0, 0, 1, 1.09064, -18.37688, 220, 1, 1.11, 0.95],
        [9, 1, 0, 0, 0, 0, 1, 1.09088, -18.36046, 220, 1, 1.11, 0.95],
        [10, 1, 0, 0, 0, 0, 1, 1.11, -21.78212, 220, 1, 1.11, 0.95],
        [11, 1, 0, 0, 0, 0, 1, 1.02566, -13.20685, 400, 1, 1.05, 0.95],
        [12, 1, 0, 0, 0, 0, 1, 1.02574, -13.19799, 400, 1, 1.05, 0.95],
        [13, 1, 0, 0, 0, 0, 1, 1.0119, -17.61355, 400, 1, 1.05, 0.95],
        [14, 1, 0, 0, 0, 0, 1, 1.04309, -18.20959, 220, 1, 1.11, 0.95],
        [15, 1, 0, 0, 0, 0, 1, 1.04329, -18.2057, 220, 1, 1.11, 0.95],
        [16, 1, 0, 0, 0, 0, 1, 1.0433, -18.19566, 220, 1, 1.11, 0.95],
        [17, 1, 0, 0, 0, 0, 1, 1.03119, -22.61825, 220, 1, 1.11, 0.95],
        [18, 1, 0, 0, 0, 0, 1, 1.03092, -22.24172, 220, 1, 1.11, 0.95],
        [19, 1, 0, 0, 0, 0, 1, 1.02695, -11.56537, 400, 1, 1.05, 0.95],
        [20, 1, 0, 0, 0, 0, 1, 1.027, -11.55538, 400, 1, 1.05, 0.95],
        [21, 1, 0, 0, 0, 0, 1, 1.022, -21.30132, 400, 1, 1.05, 0.95],
        [22, 1, 0, 0, 0, 0, 1, 1.0159, -17.33382, 400, 1, 1.05, 0.95],
        [23, 1, 0, 0, 0, 0, 1, 1.0159, -17.33382, 400, 1, 1.05, 0.95],
        [24, 2, 10.05, 20.1, 0, 0, 1, 1.08673, -25.1625, 220, 1, 1.11, 0.95],
        [25, 2, 10.05, 20.1, 0, 0, 1, 1.08668, -25.16218, 220, 1, 1.11, 0.95],
        [26, 1, 0, 0, 0, 0, 1, 1.08508, -5.08891, 220, 1, 1.11, 0.95],
        [27, 1, 0, 0, 0, 0, 1, 1.0852, -5.10279, 220, 1, 1.11, 0.95],
        [28, 1, 0, 0, 0, 0, 1, 1.04003, -20.22757, 220, 1, 1.11, 0.95],
        [29, 1, 0, 0, 0, 0, 1, 1.03998, -20.22535, 220, 1, 1.11, 0.95],
        [30, 1, 0, 0, 0, 0, 1, 1.04254, -17.70338, 220, 1, 1.11, 0.95],
        [31, 1, 0, 0, 0, 0, 1, 1.04248, -17.71626, 220, 1, 1.11, 0.95],
        [32, 1, 0, 0, 0, 0, 1, 1.08455, -2.6769, 220, 1, 1.11, 0.95],
        [33, 1, 0, 0, 0, 0, 1, 1.08445, -2.70092, 220, 1, 1.11, 0.95],
        [34, 1, 0, 0, 0, 0, 1, 1.01782, -15.36123, 400, 1, 1.05, 0.95],
        [35, 1, 0, 0, 0, 0, 1, 1.01778, -15.36625, 400, 1, 1.05, 0.95],
        [36, 1, 0, 0, 0, 0, 1, 1.00715, -18.54864, 400, 1, 1.05, 0.95],
        [37, 3, 48.68, 86.21, 0, 0, 1, 1.11, 0, 220, 1, 1.11, 0.95],
        [38, 2, 54.54, 89.93, 0, 0, 1, 1.11, 1.67906, 220, 1, 1.11, 0.95],
        [39, 2, 20.1, 40.19, 0, 0, 1, 1.11, 1.6712, 220, 1, 1.11, 0.95],
        [40, 2, 60.29, 120.57, 0, 0, 1, 1.04749, 0.16082, 400, 1, 1.05, 0.95],
        [41, 2, 60.29, 120.57, 0, 0, 1, 1.04746, 0.1677, 400, 1, 1.05, 0.95],
        [42, 1, 0, 0, 0, 0, 1, 1.032, -19.50464, 220, 1, 1.11, 0.95],
        [43, 1, 0, 0, 0, 0, 1, 1.0319, -19.50833, 220, 1, 1.11, 0.95],
        [44, 1, 0, 0, 0, 0, 1, 1.05, -1.46667, 400, 1, 1.05, 0.95],
        [45, 1, 0, 0, 0, 0, 1, 1.04999, -1.4702, 400, 1, 1.05, 0.95],
        [46, 1, 0, 0, 0, 0, 1, 1.03961, -18.55938, 220, 1, 1.11, 0.95],
        [47, 1, 0, 0, 0, 0, 1, 1.0603, -8.38392, 220, 1, 1.11, 0.95],
        [48, 1, 0, 0, 0, 0, 1, 1.06031, -8.40113, 220, 1, 1.11, 0.95],
        [49, 1, 0, 0, 0, 0, 1, 1.09293, -12.14531, 220, 2, 1.11, 0.95],
        [50, 1, 0, 0, 0, 0, 1, 1.09117, -11.76281, 220, 2, 1.11, 0.95],
        [51, 1, 0, 0, 0, 0, 1, 1.10366, -10.12826, 220, 2, 1.11, 0.95],
        [52, 1, 0, 0, 0, 0, 1, 1.10363, -10.13266, 220, 2, 1.11, 0.95],
        [53, 1, 0, 0, 0, 0, 1, 1.07232, -14.11371, 220, 2, 1.11, 0.95],
        [54, 1, 3.23, 1, 0, 0, 1, 1.09961, -8.90014, 220, 2, 1.11, 0.95],
        [55, 1, 0, 0, 0, 0, 1, 1.09968, -8.89933, 220, 2, 1.11, 0.95],
        [56, 1, 0, 0, 0, 0, 1, 1.03605, -9.05729, 400, 2, 1.05, 0.95],
        [57, 2, 26.12, 60.29, 0, 0, 1, 1.10173, -10.25582, 220, 2, 1.11, 0.95],
        [58, 2, 54.26, 120.57, 0, 0, 1, 1.10171, -10.25621, 220, 2, 1.11, 0.95],
        [59, 2, 13.06, 30.14, 0, 0, 1, 1.10172, -10.25725, 220, 2, 1.11, 0.95],
        [60, 2, 26.12, 50.24, 0, 0, 1, 1.05, -8.39996, 400, 2, 1.05, 0.95],
        [61, 2, 26.12, 50.24, 0, 0, 1, 1.05, -8.39311, 400, 2, 1.05, 0.95],
        [62, 1, 0, 0, 0, 0, 1, 1.09422, -9.63373, 220, 2, 1.11, 0.95],
        [63, 1, 0, 0, 0, 0, 1, 1.04488, -12.96627, 400, 2, 1.05, 0.95],
        [64, 1, 0, 0, 0, 0, 1, 1.04488, -12.96741, 400, 2, 1.05, 0.95],
        [65, 1, 0, 0, 0, 0, 1, 1.04784, -9.93617, 400, 2, 1.05, 0.95],
        [66, 1, 0, 0, 0, 0, 1, 1.07841, -12.39445, 220, 2, 1.11, 0.95],
        [67, 1, 0, 0, 0, 0, 1, 1.07841, -12.3893, 220, 2, 1.11, 0.95],
        [68, 1, 0, 0, 0, 0, 1, 1.04573, -9.63176, 400, 2, 1.05, 0.95],
        [69, 1, 0, 0, 0, 0, 1, 1.04572, -9.63384, 400, 2, 1.05, 0.95],
        [70, 2, 13.06, 30.14, 0, 0, 1, 1.10839, -8.87769, 220, 2, 1.11, 0.95],
        [71, 2, 13.06, 30.14, 0, 0, 1, 1.10837, -8.87934, 220, 2, 1.11, 0.95],
        [72, 2, 13.06, 30.14, 0, 0, 1, 1.04326, -9.26509, 400, 2, 1.05, 0.95],
        [73, 2, 26.12, 60.29, 0, 0, 1, 1.04328, -9.2666, 400, 2, 1.05, 0.95],
        [74, 2, 149.71, 60.29, 0, 0, 1, 1.09864, -11.20347, 220, 2, 1.11, 0.95],
        [75, 1, 29.14, 10.05, 0, 0, 1, 1.09863, -11.2051, 220, 2, 1.11, 0.95],
        [76, 1, 0, 0, 0, 0, 1, 1.09665, -9.80009, 220, 2, 1.11, 0.95],
        [77, 1, 0, 0, 0, 0, 1, 1.09665, -9.79646, 220, 2, 1.11, 0.95],
        [78, 1, 0, 0, 0, 0, 1, 1.09751, -11.17469, 220, 2, 1.11, 0.95],
        [79, 1, 0, 0, 0, 0, 1, 1.09752, -11.17842, 220, 2, 1.11, 0.95],
        [80, 1, 0, 0, 0, 0, 1, 1.05, -10.59415, 400, 2, 1.05, 0.95],
        [81, 1, 0, 0, 0, 0, 1, 1.04997, -10.60572, 400, 2, 1.05, 0.95],
        [82, 1, 0, 0, 0, 0, 1, 1.10002, -11.23164, 220, 2, 1.11, 0.95],
        [83, 1, 0, 0, 0, 0, 1, 1.10068, -11.10542, 220, 2, 1.11, 0.95],
        [84, 1, 0, 0, 0, 0, 1, 1.07989, -11.21263, 220, 2, 1.11, 0.95],
        [85, 1, 0, 0, 0, 0, 1, 1.09346, -3.5943, 220, 3, 1.11, 0.95],
        [86, 1, 9.35, 0, 0, 0, 1, 1.09458, -8.18638, 220, 3, 1.11, 0.95],
        [87, 1, 8.18, 0, 0, 0, 1, 1.0946, -8.18664, 220, 3, 1.11, 0.95],
        [88, 1, 0, 0, 0, 0, 1, 1.09961, -2.00004, 220, 3, 1.11, 0.95],
        [89, 1, 0, 0, 0, 0, 1, 1.09973, -1.98735, 220, 3, 1.11, 0.95],
        [90, 1, 0, 0, 0, 0, 1, 1.10943, -1.60433, 220, 3, 1.11, 0.95],
        [91, 1, 0, 0, 0, 0, 1, 1.10945, -1.60664, 220, 3, 1.11, 0.95],
        [92, 1, 0, 0, 0, 0, 1, 1.07467, -3.37656, 220, 3, 1.11, 0.95],
        [93, 1, 0, 0, 0, 0, 1, 1.07442, -3.38318, 220, 3, 1.11, 0.95],
        [94, 2, 28.13, 70.33, 0, 0, 1, 1.10879, -1.16446, 220, 3, 1.11, 0.95],
        [95, 2, 42.2, 103.49, 0, 0, 1, 1.11, -0.70406, 220, 3, 1.11, 0.95],
        [96, 1, 7.72, -24.99, 0, 0, 1, 1.09588, -2.13544, 220, 3, 1.11, 0.95],
        [97, 1, 0, 0, 0, 0, 1, 1.09587, -2.13643, 220, 3, 1.11, 0.95],
        [98, 2, 32.15, 142.68, 0, 0, 1, 1.05, -3.78388, 400, 3, 1.05, 0.95],
        [99, 1, 0, 0, 0, 0, 1, 1.04991, -3.81135, 400, 3, 1.05, 0.95],
        [100, 1, 0, 0, 0, 0, 1, 1.06008, -5.3044, 220, 3, 1.11, 0.95],
        [101, 1, 0, 0, 0, 0, 1, 1.10846, -1.10453, 220, 3, 1.11, 0.95],
        [102, 1, 0, 0, 0, 0, 1, 1.10846, -1.10183, 220, 3, 1.11, 0.95],
        [103, 1, 45.11, 7.94, 0, 0, 1, 1.09635, -3.36048, 220, 3, 1.11, 0.95],
        [104, 1, 0, 0, 0, 0, 1, 1.09629, -3.3649, 220, 3, 1.11, 0.95],
        [105, 1, 0, 0, 0, 0, 1, 1.10423, -0.96982, 220, 3, 1.11, 0.95],
        [106, 1, 0, 0, 0, 0, 1, 1.10416, -0.97182, 220, 3, 1.11, 0.95],
        [107, 1, 0, 0, 0, 0, 1, 1.10052, -2.95149, 220, 3, 1.11, 0.95],
        [108, 1, 0, 0, 0, 0, 1, 1.1005, -2.95733, 220, 3, 1.11, 0.95],
        [109, 1, 0, 0, 0, 0, 1, 1.04342, -1.54584, 400, 3, 1.05, 0.95],
        [110, 1, 0, 0, 0, 0, 1, 1.04342, -1.54731, 400, 3, 1.05, 0.95],
        [111, 1, 0, 0, 0, 0, 1, 1.10685, -0.81041, 220, 3, 1.11, 0.95],
        [112, 1, 0, 0, 0, 0, 1, 1.10687, -0.80889, 220, 3, 1.11, 0.95],
        [113, 1, 0, 0, 0, 0, 1, 1.08112, -2.74238, 220, 3, 1.11, 0.95],
        [114, 1, 0, 0, 0, 0, 1, 1.08102, -2.75523, 220, 3, 1.11, 0.95],
        [115, 2, 29.36, 18.51, 0, 0, 1, 1.10086, -2.24238, 220, 3, 1.11, 0.95],
        [116, 1, 0, 0, 0, 0, 1, 1.10083, -2.25484, 220, 3, 1.11, 0.95],
        [117, 1, 0, 0, 0, 0, 1, 1.09464, -8.16746, 220, 3, 1.11, 0.95],
        [118, 1, 0, 0, 0, 0, 1, 1.09463, -8.16449, 220, 3, 1.11, 0.95],
        [119, 1, 0, 0, 0, 0, 1, 1.06073, -3.70462, 220, 3, 1.11, 0.95],
        [120, 1, 0, 0, 0, 0, 1, 1.0607, -3.70595, 220, 3, 1.11, 0.95],
        [121, 2, 0, 0, 0, 0, 1, 1.10998, -0.81487, 220, 3, 1.11, 0.95],
        [122, 2, 10.05, 44.21, 0, 0, 1, 1.11, -0.81293, 220, 3, 1.11, 0.95],
        [123, 2, 7.03, 18.09, 0, 0, 1, 1.10998, -0.9014, 220, 3, 1.11, 0.95],
        [124, 2, 8.04, 21.1, 0, 0, 1, 1.11, -0.88955, 220, 3, 1.11, 0.95],
        [125, 1, 0, 0, 0, 0, 1, 1.09615, -3.6595, 220, 3, 1.11, 0.95],
        [126, 1, 71.54, 7.94, 0, 0, 1, 1.09618, -3.66739, 220, 3, 1.11, 0.95],
        [127, 1, 0, 0, 0, 0, 1, 1.07909, -3.98005, 220, 3, 1.11, 0.95],
        [128, 1, 0, 0, 0, 0, 1, 1.08915, -1.6916, 220, 3, 1.11, 0.95],
        [129, 1, 0, 0, 0, 0, 1, 1.08919, -1.6937, 220, 3, 1.11, 0.95],
        [130, 1, 0, 0, 0, 0, 1, 1.09446, -2.20106, 220, 3, 1.11, 0.95],
        [131, 1, 0, 0, 0, 0, 1, 1.09456, -2.19291, 220, 3, 1.11, 0.95],
        [132, 1, 0, 0, 0, 0, 1, 1.04145, -4.68941, 400, 3, 1.05, 0.95],
        [133, 1, 0, 0, 0, 0, 1, 1.04145, -4.68941, 400, 3, 1.05, 0.95],
        [134, 2, 0, 0, 0, 0, 1, 1.1076, -1.75405, 220, 3, 1.11, 0.95],
        [135, 2, 9.04, 20.1, 0, 0, 1, 1.10756, -1.75662, 220, 3, 1.11, 0.95],
        [136, 2, 6.03, 15.07, 0, 0, 1, 1.09273, -3.25359, 220, 3, 1.11, 0.95],
        [137, 1, 0, 0, 0, 0, 1, 1.09274, -3.26507, 220, 3, 1.11, 0.95],
        [138, 1, 0, 0, 0, 0, 1, 1.04773, -10.43139, 400, 3, 1.05, 0.95],
        [139, 1, 0, 0, 0, 0, 1, 1.04776, -10.43347, 400, 3, 1.05, 0.95],
        [140, 1, 0, 0, 0, 0, 1, 1.05, -5.23789, 400, 3, 1.05, 0.95],
        [141, 1, 0, 0, 0, 0, 1, 1.05, -5.23626, 400, 3, 1.05, 0.95],
        [142, 1, 0, 0, 0, 0, 1, 1.07651, -4.23696, 220, 3, 1.11, 0.95],
        [143, 1, 0, 0, 0, 0, 1, 1.07657, -4.2345, 220, 3, 1.11, 0.95],
        [144, 2, 18.34, 15.86, 0, 0, 1, 1.10995, -0.42094, 220, 3, 1.11, 0.95],
        [145, 2, 41.01, 43.07, 0, 0, 1, 1.11, -0.39755, 220, 3, 1.11, 0.95],
        [146, 2, 28.13, 66.31, 0, 0, 1, 1.03968, -3.73649, 400, 3, 1.05, 0.95],
        [147, 1, 0, 0, 0, 0, 1, 1.03973, -3.73553, 400, 3, 1.05, 0.95],
        [148, 1, 0, 0, 0, 0, 1, 1.09503, -3.45038, 220, 3, 1.11, 0.95],
        [149, 1, 0, 0, 0, 0, 1, 1.09511, -3.44329, 220, 3, 1.11, 0.95],
        [150, 1, 0, 0, 0, 0, 1, 1.10974, -0.88932, 220, 3, 1.11, 0.95],
        [151, 1, 0, 0, 0, 0, 1, 1.09847, -3.06801, 220, 3, 1.11, 0.95],
        [152, 2, 0, 0, 0, 0, 1, 1.0747, -3.37679, 220, 3, 1.11, 0.95],
        [153, 2, 0, 0, 0, 0, 1, 1.07446, -3.38341, 220, 3, 1.11, 0.95],
        [154, 2, 7.84, 20.1, 0, 0, 1, 1.0886, -12.28014, 220, 4, 1.11, 0.95],
        [155, 2, 8.04, 20.1, 0, 0, 1, 1.0886, -12.29183, 220, 4, 1.11, 0.95],
        [156, 1, 0, 0, 0, 0, 1, 1.06352, -13.64672, 220, 4, 1.11, 0.95],
        [157, 1, 0, 0, 0, 0, 1, 1.06349, -13.64822, 220, 4, 1.11, 0.95],
        [158, 1, 0, 0, 0, 0, 1, 1.05491, -15.40253, 220, 4, 1.11, 0.95],
        [159, 1, 0, 0, 0, 0, 1, 1.0809, -11.9306, 220, 4, 1.11, 0.95],
        [160, 1, 0, 0, 0, 0, 1, 1.08081, -11.94, 220, 4, 1.11, 0.95],
        [161, 1, 0, 0, 0, 0, 1, 1.02237, -11.56354, 400, 4, 1.05, 0.95],
        [162, 1, 0, 0, 0, 0, 1, 1.02234, -11.56615, 400, 4, 1.05, 0.95],
        [163, 1, 0, 0, 0, 0, 1, 1.02624, -27.57951, 220, 4, 1.11, 0.95],
        [164, 1, 0, 0, 0, 0, 1, 1.07708, -34.45732, 220, 4, 1.11, 0.95],
        [165, 1, 0, 0, 0, 0, 1, 1.07708, -34.45732, 220, 4, 1.11, 0.95],
        [166, 1, 0, 0, 0, 0, 1, 1.07169, -29.99065, 220, 4, 1.11, 0.95],
        [167, 1, 0, 0, 0, 0, 1, 1.07169, -29.99065, 220, 4, 1.11, 0.95],
        [168, 1, 0, 0, 0, 0, 1, 1.05429, -15.63955, 220, 4, 1.11, 0.95],
        [169, 2, 0, 0, 0, 0, 1, 1.08102, -17.43907, 220, 4, 1.11, 0.95],
        [170, 2, 0, 0, 0, 0, 1, 1.08099, -17.45362, 220, 4, 1.11, 0.95],
        [171, 1, 0, 0, 0, 0, 1, 1.11, -14.25484, 220, 4, 1.11, 0.95],
        [172, 2, 12.06, 30.14, 0, 0, 1, 1.10415, -32.35768, 220, 4, 1.11, 0.95],
        [173, 2, 9.39, 2.43, 0, 0, 1, 1.1041, -32.35811, 220, 4, 1.11, 0.95],
        [174, 2, 12.06, 30.14, 0, 0, 1, 1.03614, -29.56303, 400, 4, 1.05, 0.95],
        [175, 2, 24.11, 60.29, 0, 0, 1, 1.03615, -29.55912, 400, 4, 1.05, 0.95],
        [176, 1, 0, 0, 0, 0, 1, 0.9948, -26.47025, 220, 4, 1.11, 0.95],
        [177, 1, 0, 0, 0, 0, 1, 0.99492, -26.47877, 220, 4, 1.11, 0.95],
        [178, 1, 0, 0, 0, 0, 1, 1.04834, -21.80385, 220, 4, 1.11, 0.95],
        [179, 1, 0, 0, 0, 0, 1, 1.04835, -21.80804, 220, 4, 1.11, 0.95],
        [180, 2, 26.12, 64.3, 0, 0, 1, 1.11, -8.16009, 220, 4, 1.11, 0.95],
        [181, 2, 26.12, 64.3, 0, 0, 1, 1.11, -8.16811, 220, 4, 1.11, 0.95],
        [182, 2, 26.12, 64.51, 0, 0, 1, 1.11, -8.14562, 220, 4, 1.11, 0.95],
        [183, 2, 26.12, 64.51, 0, 0, 1, 1.0494, -7.52334, 400, 4, 1.05, 0.95],
        [184, 1, 0, 0, 0, 0, 1, 1.04937, -7.52475, 400, 4, 1.05, 0.95],
        [185, 1, 0, 0, 0, 0, 1, 1.08073, -34.49268, 220, 4, 1.11, 0.95],
        [186, 1, 0, 0, 0, 0, 1, 1.08073, -34.49268, 220, 4, 1.11, 0.95],
        [187, 1, 0, 0, 0, 0, 1, 1.00811, -12.6487, 400, 4, 1.05, 0.95],
        [188, 1, 0, 0, 0, 0, 1, 0.97886, -18.43994, 400, 4, 1.05, 0.95],
        [189, 1, 0, 0, 0, 0, 1, 1.02056, -10.67424, 400, 4, 1.05, 0.95],
        [190, 1, 0, 0, 0, 0, 1, 1.02058, -10.66628, 400, 4, 1.05, 0.95],
        [191, 2, 12.06, 30.14, 0, 0, 1, 1.08298, -17.58589, 220, 4, 1.11, 0.95],
        [192, 2, 14.66, 30.65, 0, 0, 1, 1.08268, -17.62769, 220, 4, 1.11, 0.95],
        [193, 2, 38.18, 64.3, 0, 0, 1, 1.03244, -10.99838, 400, 4, 1.05, 0.95],
        [194, 1, 0, 0, 0, 0, 1, 1.01417, -34.12922, 220, 4, 1.11, 0.95],
        [195, 1, 0, 0, 0, 0, 1, 1.01422, -34.13421, 220, 4, 1.11, 0.95],
        [196, 1, 0, 0, 0, 0, 1, 1.0765, -34.5414, 220, 4, 1.11, 0.95],
        [197, 1, 0, 0, 0, 0, 1, 1.07651, -34.54253, 220, 4, 1.11, 0.95],
        [198, 1, 0, 0, 0, 0, 1, 1.02063, -28.73479, 220, 4, 1.11, 0.95],
        [199, 1, 0, 0, 0, 0, 1, 1.02061, -28.7266, 220, 4, 1.11, 0.95],
        [200, 1, 0, 0, 0, 0, 1, 0.98033, -30.38903, 400, 4, 1.05, 0.95],
...
    ])

    ## generator data
    # bus Pg Qg Qmax Qmin Vg mBase status Pmax Pmin Pc1 Pc2 Qc1min Qc1max Qc2min Qc2max ramp_agc ramp_10 ramp_30 ramp_q apf
    ppc['gen'] = array([
        [24, 110, 85.19, 140, -49, 1.08673, 235.3, 1, 221, 110, 0, 0, 0, 0, 0, 0, 0, 0, 0, 0, 0],
        [25, 135, -22, 124, -22, 1.08668, 235.3, 1, 200, 135, 0, 0, 0, 0, 0, 0, 0, 0, 0, 0, 0],
        [37, 370, 74.67, 190, -19, 1.11, 426, 1, 370, 240, 0, 0, 0, 0, 0, 0, 0, 0, 0, 0, 0],
        [37, 370, 74.67, 190, -19, 1.11, 426, 1, 370, 240, 0, 0, 0, 0, 0, 0, 0, 0, 0, 0, 0],
        [38, 370, 16.41, 190, -19, 1.11, 426, 1, 370, 240, 0, 0, 0, 0, 0, 0, 0, 0, 0, 0, 0],
        [38, 370, 16.41, 190, -19, 1.11, 426, 1, 370, 240, 0, 0, 0, 0, 0, 0, 0, 0, 0, 0, 0],
        [39, 370, 97, 190, -19, 1.11, 426, 1, 370, 240, 0, 0, 0, 0, 0, 0, 0, 0, 0, 0, 0],
        [40, 370, 69.26, 190, -19, 1.04749, 426, 1, 370, 240, 0, 0, 0, 0, 0, 0, 0, 0, 0, 0, 0],
        [40, 370, 69.26, 190, -19, 1.04749, 426, 1, 370, 240, 0, 0, 0, 0, 0, 0, 0, 0, 0, 0, 0],
        [40, 370, 69.26, 190, -19, 1.04749, 426, 1, 370, 240, 0, 0, 0, 0, 0, 0, 0, 0, 0, 0, 0],
        [41, 370, -18.99, 190, -19, 1.04746, 426, 1, 370, 240, 0, 0, 0, 0, 0, 0, 0, 0, 0, 0, 0],
        [41, 370, -18.99, 190, -19, 1.04746, 426, 1, 370, 240, 0, 0, 0, 0, 0, 0, 0, 0, 0, 0, 0],
        [41, 370, -18.99, 190, -19, 1.04746, 426, 1, 370, 240, 0, 0, 0, 0, 0, 0, 0, 0, 0, 0, 0],
        [57, 111.38, 41.84, 152, -33, 1.10173, 235, 1, 215, 110, 0, 0, 0, 0, 0, 0, 0, 0, 0, 0, 0],
        [57, 126.35, 41.84, 152, -33, 1.10173, 235, 1, 220, 125, 0, 0, 0, 0, 0, 0, 0, 0, 0, 0, 0],
        [58, 164.41, 85.9, 149, -33, 1.10171, 235, 1, 225, 125, 0, 0, 0, 0, 0, 0, 0, 0, 0, 0, 0],
        [58, 0, 0, 149, -33, 1, 235, 0, 225, 120, 0, 0, 0, 0, 0, 0, 0, 0, 0, 0, 0],
        [58, 153.88, 85.9, 149, -33, 1.10171, 235, 1, 225, 110, 0, 0, 0, 0, 0, 0, 0, 0, 0, 0, 0],
        [59, 110, 29.72, 149, -33, 1.10172, 235, 1, 225, 110, 0, 0, 0, 0, 0, 0, 0, 0, 0, 0, 0],
        [60, 535, 177.45, 363, -47, 1.05, 588, 1, 535, 255, 0, 0, 0, 0, 0, 0, 0, 0, 0, 0, 0],
        [61, 560, 36.63, 348, -100, 1.05, 588, 1, 560, 250, 0, 0, 0, 0, 0, 0, 0, 0, 0, 0, 0],
        [70, 129, -6, 105, -11, 1.10839, 235, 1, 225, 129, 0, 0, 0, 0, 0, 0, 0, 0, 0, 0, 0],
        [71, 129, 55.33, 105, -11, 1.10837, 235, 1, 225, 129, 0, 0, 0, 0, 0, 0, 0, 0, 0, 0, 0],
        [71, 0, 0, 99, -10, 1, 235, 0, 225, 129, 0, 0, 0, 0, 0, 0, 0, 0, 0, 0, 0],
        [72, 0, 0, 105, -11, 1, 235, 0, 225, 129, 0, 0, 0, 0, 0, 0, 0, 0, 0, 0, 0],
        [72, 129, -11, 105, -11, 1.04326, 235, 1, 225, 129, 0, 0, 0, 0, 0, 0, 0, 0, 0, 0, 0],
        [73, 129, -10, 99, -10, 1.04328, 235, 1, 225, 129, 0, 0, 0, 0, 0, 0, 0, 0, 0, 0, 0],
        [73, 129, -11, 105, -11, 1.04328, 235, 1, 225, 129, 0, 0, 0, 0, 0, 0, 0, 0, 0, 0, 0],
        [74, 112, 60, 60, 0, 1.09864, 120, 1, 112, 0, 0, 0, 0, 0, 0, 0, 0, 0, 0, 0, 0],
        [94, 220, 95.65, 131, -6, 1.10879, 270.6, 1, 220, 125, 0, 0, 0, 0, 0, 0, 0, 0, 0, 0, 0],
        [94, 225, 95.65, 131, -6, 1.10879, 270.6, 1, 225, 140, 0, 0, 0, 0, 0, 0, 0, 0, 0, 0, 0],
        [95, 225, 72.13, 131, -6, 1.11, 270.6, 1, 225, 130, 0, 0, 0, 0, 0, 0, 0, 0, 0, 0, 0],
        [95, 225, 72.13, 131, -6, 1.11, 270.6, 1, 225, 125, 0, 0, 0, 0, 0, 0, 0, 0, 0, 0, 0],
        [95, 225, 72.13, 131, -6, 1.11, 270.6, 1, 225, 130, 0, 0, 0, 0, 0, 0, 0, 0, 0, 0, 0],
        [98, 383, 36.08, 213, -31, 1.05, 426, 1, 383, 220, 0, 0, 0, 0, 0, 0, 0, 0, 0, 0, 0],
        [98, 380, 21.68, 119, -31, 1.05, 435.3, 1, 380, 220, 0, 0, 0, 0, 0, 0, 0, 0, 0, 0, 0],
        [115, 12, 0, 0, 0, 1.10086, 12, 1, 12, 0, 0, 0, 0, 0, 0, 0, 0, 0, 0, 0, 0],
        [115, 6, 0, 0, 0, 1.10086, 6, 1, 6, 0, 0, 0, 0, 0, 0, 0, 0, 0, 0, 0, 0],
        [121, 0, 0, 120, -10, 1, 270.6, 0, 225, 120, 0, 0, 0, 0, 0, 0, 0, 0, 0, 0, 0],
        [122, 225, 61.33, 120, -10, 1.11, 270.6, 1, 225, 120, 0, 0, 0, 0, 0, 0, 0, 0, 0, 0, 0],
        [123, 120, 66.3, 73, -1, 1.10998, 150, 1, 120, 70, 0, 0, 0, 0, 0, 0, 0, 0, 0, 0, 0],
        [124, 120, 16.34, 73, -1, 1.11, 150, 1, 120, 70, 0, 0, 0, 0, 0, 0, 0, 0, 0, 0, 0],
        [134, 0, 0, 80, 0, 1, 150, 0, 120, 70, 0, 0, 0, 0, 0, 0, 0, 0, 0, 0, 0],
        [135, 120, 80, 80, 0, 1.10756, 150, 1, 120, 70, 0, 0, 0, 0, 0, 0, 0, 0, 0, 0, 0],
        [136, 80, 31, 31, 0, 1.09273, 117.5, 1, 110, 80, 0, 0, 0, 0, 0, 0, 0, 0, 0, 0, 0],
        [144, 215, 44.29, 135, -35, 1.10995, 270.6, 1, 215, 135, 0, 0, 0, 0, 0, 0, 0, 0, 0, 0, 0],
        [145, 215, 41.96, 135, -35, 1.11, 270.6, 1, 215, 135, 0, 0, 0, 0, 0, 0, 0, 0, 0, 0, 0],
        [145, 225, 43.99, 140, -35, 1.11, 270.6, 1, 225, 135, 0, 0, 0, 0, 0, 0, 0, 0, 0, 0, 0],
        [146, 225, -36, 140, -36, 1.03968, 270.6, 1, 225, 135, 0, 0, 0, 0, 0, 0, 0, 0, 0, 0, 0],
        [146, 220, -36, 137, -36, 1.03968, 270.6, 1, 220, 135, 0, 0, 0, 0, 0, 0, 0, 0, 0, 0, 0],
        [152, 0, 0, 72, -29, 1, 150, 0, 135, -135, 0, 0, 0, 0, 0, 0, 0, 0, 0, 0, 0],
        [152, 0, 0, 72, -29, 1, 150, 0, 135, -135, 0, 0, 0, 0, 0, 0, 0, 0, 0, 0, 0],
        [153, 0, 0, 72, -29, 1, 150, 0, 135, -135, 0, 0, 0, 0, 0, 0, 0, 0, 0, 0, 0],
        [153, 0, 0, 72, -29, 1, 150, 0, 135, -135, 0, 0, 0, 0, 0, 0, 0, 0, 0, 0, 0],
        [154, 120, 85, 85, -15, 1.0886, 150, 1, 120, 94, 0, 0, 0, 0, 0, 0, 0, 0, 0, 0, 0],
        [155, 120, 85, 85, -15, 1.0886, 150, 1, 120, 94, 0, 0, 0, 0, 0, 0, 0, 0, 0, 0, 0],
        [155, 0, 0, 85, -15, 1, 150, 0, 120, 94, 0, 0, 0, 0, 0, 0, 0, 0, 0, 0, 0],
        [169, 0, 0, 25, 0, 1, 51.4, 0, 50, 40, 0, 0, 0, 0, 0, 0, 0, 0, 0, 0, 0],
        [170, 0, 0, 90, -15, 1, 150, 0, 120, 80, 0, 0, 0, 0, 0, 0, 0, 0, 0, 0, 0],
        [170, 0, 0, 25, 0, 1, 51.4, 0, 50, 45, 0, 0, 0, 0, 0, 0, 0, 0, 0, 0, 0],
        [172, 100, 119, 119, -31, 1.10415, 252.4, 1, 232, 100, 0, 0, 0, 0, 0, 0, 0, 0, 0, 0, 0],
        [172, 0, 0, 111, -21, 1, 237.5, 0, 205, 135, 0, 0, 0, 0, 0, 0, 0, 0, 0, 0, 0],
        [173, 0, 0, 111, -21, 1, 237.5, 0, 205, 135, 0, 0, 0, 0, 0, 0, 0, 0, 0, 0, 0],
        [173, 0, 0, 102, -15, 1, 252.4, 0, 222, 90, 0, 0, 0, 0, 0, 0, 0, 0, 0, 0, 0],
        [174, 90, -15, 102, -15, 1.03614, 252.4, 1, 222, 90, 0, 0, 0, 0, 0, 0, 0, 0, 0, 0, 0],
        [175, 90, 62.7, 102, -15, 1.03615, 252.4, 1, 222, 90, 0, 0, 0, 0, 0, 0, 0, 0, 0, 0, 0],
        [175, 100, 56.73, 93, -10, 1.03615, 252.4, 1, 232, 100, 0, 0, 0, 0, 0, 0, 0, 0, 0, 0, 0],
        [180, 261, 99, 127, -35, 1.11, 287.3, 1, 261, 104, 0, 0, 0, 0, 0, 0, 0, 0, 0, 0, 0],
        [180, 261, 99, 127, -35, 1.11, 287.3, 1, 261, 104, 0, 0, 0, 0, 0, 0, 0, 0, 0, 0, 0],
        [181, 206, 103, 103, -17, 1.11, 238.4, 1, 206, 120, 0, 0, 0, 0, 0, 0, 0, 0, 0, 0, 0],
        [181, 261, 127, 127, -35, 1.11, 287.3, 1, 261, 104, 0, 0, 0, 0, 0, 0, 0, 0, 0, 0, 0],
        [182, 235, 10.81, 145, -38, 1.11, 263.9, 1, 235, 94, 0, 0, 0, 0, 0, 0, 0, 0, 0, 0, 0],
        [182, 235, 10.81, 145, -38, 1.11, 263.9, 1, 235, 94, 0, 0, 0, 0, 0, 0, 0, 0, 0, 0, 0],
        [183, 206, 103, 103, -17, 1.0494, 238.4, 1, 206, 120, 0, 0, 0, 0, 0, 0, 0, 0, 0, 0, 0],
        [183, 206, 103, 103, -17, 1.0494, 238.4, 1, 206, 120, 0, 0, 0, 0, 0, 0, 0, 0, 0, 0, 0],
        [191, 200, 104, 104, -23, 1.08298, 233.2, 1, 200, 150, 0, 0, 0, 0, 0, 0, 0, 0, 0, 0, 0],
        [192, 200, 104, 104, -23, 1.08268, 233.2, 1, 200, 150, 0, 0, 0, 0, 0, 0, 0, 0, 0, 0, 0],
        [192, 0, 0, 104, -23, 1, 233.2, 0, 200, 145, 0, 0, 0, 0, 0, 0, 0, 0, 0, 0, 0],
        [192, 0, 0, 104, -23, 1, 233.2, 0, 200, 145, 0, 0, 0, 0, 0, 0, 0, 0, 0, 0, 0],
        [193, 464, 294, 294, -259, 1.03244, 464, 1, 464, 208, 0, 0, 0, 0, 0, 0, 0, 0, 0, 0, 0],
        [208, 188, 100, 100, 0, 1.06751, 218.3, 1, 188, 76, 0, 0, 0, 0, 0, 0, 0, 0, 0, 0, 0],
        [240, 179, -62, 105, -62, 1.02222, 209, 1, 179, -200, 0, 0, 0, 0, 0, 0, 0, 0, 0, 0, 0],
        [240, 179, -62, 105, -62, 1.02222, 209, 1, 179, -200, 0, 0, 0, 0, 0, 0, 0, 0, 0, 0, 0],
        [240, 0, 0, 160, -100, 1, 209, 0, 179, -200, 0, 0, 0, 0, 0, 0, 0, 0, 0, 0, 0],
        [241, 179, -19.63, 160, -100, 1.02222, 209, 1, 179, -200, 0, 0, 0, 0, 0, 0, 0, 0, 0, 0, 0],
        [244, 220, 10.07, 100, 0, 1.11, 177.1, 1, 220, 112.5, 0, 0, 0, 0, 0, 0, 0, 0, 0, 0, 0],
        [254, 55, 20, 20, 0, 1.10528, 78.8, 1, 55, 23, 0, 0, 0, 0, 0, 0, 0, 0, 0, 0, 0],
        [254, 50, 20, 20, 0, 1.10528, 68.8, 1, 50, 25, 0, 0, 0, 0, 0, 0, 0, 0, 0, 0, 0],
        [254, 50, 20, 20, 0, 1.10528, 68.8, 1, 50, 25, 0, 0, 0, 0, 0, 0, 0, 0, 0, 0, 0],
        [254, 23, 20, 20, 0, 1.10528, 27.6, 1, 23, 7, 0, 0, 0, 0, 0, 0, 0, 0, 0, 0, 0],
        [267, 2.1, 1, 1, 0, 1.05826, 0.7, 1, 2.1, 0.45, 0, 0, 0, 0, 0, 0, 0, 0, 0, 0, 0],
        [268, 2.1, 1, 1, 0, 1.07506, 0.7, 1, 2.1, 0.45, 0, 0, 0, 0, 0, 0, 0, 0, 0, 0, 0],
        [278, 0, 0, 5, 0, 1, 10.3, 0, 7.15, 5.85, 0, 0, 0, 0, 0, 0, 0, 0, 0, 0, 0],
        [279, 0, 0, 5, 0, 1, 10.3, 0, 7.15, 5.85, 0, 0, 0, 0, 0, 0, 0, 0, 0, 0, 0],
        [295, 5, 3.75, 3.75, 0, 1.09445, 5, 1, 5, 1, 0, 0, 0, 0, 0, 0, 0, 0, 0, 0, 0],
        [295, 5, 3.75, 3.75, 0, 1.09445, 5, 1, 5, 1, 0, 0, 0, 0, 0, 0, 0, 0, 0, 0, 0],
        [295, 5, 3.75, 3.75, 0, 1.09445, 5, 1, 5, 1, 0, 0, 0, 0, 0, 0, 0, 0, 0, 0, 0],
        [295, 5, 3.75, 3.75, 0, 1.09445, 5, 1, 5, 1, 0, 0, 0, 0, 0, 0, 0, 0, 0, 0, 0],
        [310, 370, 190, 190, -19, 1, 426, 1, 370, 240, 0, 0, 0, 0, 0, 0, 0, 0, 0, 0, 0],
        [316, 0, 0, 2, 0, 1, 4, 0, 5.73, 1, 0, 0, 0, 0, 0, 0, 0, 0, 0, 0, 0],
        [316, 0, 0, 2, 0, 1, 4, 0, 5.73, 1, 0, 0, 0, 0, 0, 0, 0, 0, 0, 0, 0],
        [376, 6.6, 5, 5, 0, 1.10193, 8.4, 1, 6.6, 5.4, 0, 0, 0, 0, 0, 0, 0, 0, 0, 0, 0],
        [379, 0.9, 1, 1, 0, 1.11132, 0.9, 1, 0.9, 0.3, 0, 0, 0, 0, 0, 0, 0, 0, 0, 0, 0],
        [379, 0.9, 1, 1, 0, 1.11132, 0.9, 1, 0.9, 0.3, 0, 0, 0, 0, 0, 0, 0, 0, 0, 0, 0],
        [379, 0.9, 1, 1, 0, 1.11132, 0.9, 1, 0.9, 0.3, 0, 0, 0, 0, 0, 0, 0, 0, 0, 0, 0],
        [383, 27, 7, 7, 0, 1.11054, 31.3, 1, 27, 11, 0, 0, 0, 0, 0, 0, 0, 0, 0, 0, 0],
        [383, 30, 7, 7, 0, 1.11054, 39, 1, 30, 11, 0, 0, 0, 0, 0, 0, 0, 0, 0, 0, 0],
        [383, 30, 6, 6, 0, 1.11054, 40.6, 1, 30, 9, 0, 0, 0, 0, 0, 0, 0, 0, 0, 0, 0],
        [384, 55, 15, 15, 0, 1.11743, 68.8, 1, 55, 20, 0, 0, 0, 0, 0, 0, 0, 0, 0, 0, 0],
        [384, 55, 15, 15, 0, 1.11743, 68.8, 1, 55, 20, 0, 0, 0, 0, 0, 0, 0, 0, 0, 0, 0],
        [385, 40, 6.11, 15, 0, 1.11752, 48.5, 1, 40, 10, 0, 0, 0, 0, 0, 0, 0, 0, 0, 0, 0],
        [385, 55, 6.11, 15, 0, 1.11752, 68.8, 1, 55, 20, 0, 0, 0, 0, 0, 0, 0, 0, 0, 0, 0],
        [387, 50, 20, 20, 0, 1.1113, 68.8, 1, 50, 25, 0, 0, 0, 0, 0, 0, 0, 0, 0, 0, 0],
        [387, 100, 20, 20, 0, 1.1113, 147, 1, 100, 55, 0, 0, 0, 0, 0, 0, 0, 0, 0, 0, 0],
        [388, 60, 40, 40, 0, 1.11386, 68.8, 1, 60, 25, 0, 0, 0, 0, 0, 0, 0, 0, 0, 0, 0],
        [399, 2.75, 3, 3, 0, 1.10799, 3.8, 1, 2.75, 2, 0, 0, 0, 0, 0, 0, 0, 0, 0, 0, 0],
        [433, 1.65, 1, 1, 0, 1.09946, 1.9, 1, 1.65, 1.35, 0, 0, 0, 0, 0, 0, 0, 0, 0, 0, 0],
        [455, 51.5, 8.22, 57, -22, 1.11245, 68.8, 1, 51.5, 15, 0, 0, 0, 0, 0, 0, 0, 0, 0, 0, 0],
        [456, 55, 8.37, 57, -22, 1.11895, 68.8, 1, 55, 15, 0, 0, 0, 0, 0, 0, 0, 0, 0, 0, 0],
        [457, 55, 14.8, 57, -22, 1.11707, 68.8, 1, 55, 15, 0, 0, 0, 0, 0, 0, 0, 0, 0, 0, 0],
        [457, 77, 17.33, 71, -28, 1.11707, 87.5, 1, 77, 3, 0, 0, 0, 0, 0, 0, 0, 0, 0, 0, 0],
        [458, 55, 8.56, 57, -22, 1.11493, 68.8, 1, 55, 15, 0, 0, 0, 0, 0, 0, 0, 0, 0, 0, 0],
        [458, 55, 8.56, 57, -22, 1.11493, 68.8, 1, 55, 15, 0, 0, 0, 0, 0, 0, 0, 0, 0, 0, 0],
        [478, 120, 73.47, 137, -47, 1.11867, 235.3, 1, 226, 120, 0, 0, 0, 0, 0, 0, 0, 0, 0, 0, 0],
        [478, 12, 6.16, 12, 0, 1.11867, 48.5, 1, 25, 12, 0, 0, 0, 0, 0, 0, 0, 0, 0, 0, 0],
        [479, 10, 12, 12, 0, 1.10485, 48.5, 1, 17, 10, 0, 0, 0, 0, 0, 0, 0, 0, 0, 0, 0],
        [482, 4.4, 2, 2, 0, 1.10618, 5.6, 1, 4.4, 3.6, 0, 0, 0, 0, 0, 0, 0, 0, 0, 0, 0],
        [500, 0.34, 0.2, 0.2, 0, 1.09306, 0.4, 1, 0.34, 0, 0, 0, 0, 0, 0, 0, 0, 0, 0, 0, 0],
        [522, 6.6, 4, 4, 0, 1.10119, 8.4, 1, 6.6, 3, 0, 0, 0, 0, 0, 0, 0, 0, 0, 0, 0],
        [527, 3.41, 3, 3, 0, 1.11076, 4.6, 1, 3.41, 2.79, 0, 0, 0, 0, 0, 0, 0, 0, 0, 0, 0],
        [532, 6.5, 4.59, 4.7, 3.8, 1.10157, 6.5, 1, 6.5, 1, 0, 0, 0, 0, 0, 0, 0, 0, 0, 0, 0],
        [532, 6.5, 4.59, 4.7, 3.8, 1.10157, 6.5, 1, 6.5, 1, 0, 0, 0, 0, 0, 0, 0, 0, 0, 0, 0],
        [532, 6.5, 4.59, 4.7, 3.8, 1.10157, 6.5, 1, 6.5, 1, 0, 0, 0, 0, 0, 0, 0, 0, 0, 0, 0],
        [543, 2.97, 2, 2, 0, 1.06077, 4.1, 1, 2.97, 2.43, 0, 0, 0, 0, 0, 0, 0, 0, 0, 0, 0],
        [572, 0, 0, 2, 0, 1, 4.6, 0, 3.52, 2.88, 0, 0, 0, 0, 0, 0, 0, 0, 0, 0, 0],
        [597, 1.7, 0.7, 0.7, 0, 1.08723, 1.9, 1, 1.7, 1, 0, 0, 0, 0, 0, 0, 0, 0, 0, 0, 0],
        [597, 0, 0, 0.7, 0, 1, 1.9, 0, 1.7, 1, 0, 0, 0, 0, 0, 0, 0, 0, 0, 0, 0],
        [603, 4.4, 3, 3, 0, 1.11189, 5.6, 1, 4.4, 3, 0, 0, 0, 0, 0, 0, 0, 0, 0, 0, 0],
        [670, 52, 16.51, 35, 2, 1.11956, 62.5, 1, 52, 37, 0, 0, 0, 0, 0, 0, 0, 0, 0, 0, 0],
        [670, 30, 11.7, 23, 2, 1.11956, 37.5, 1, 30, 10, 0, 0, 0, 0, 0, 0, 0, 0, 0, 0, 0],
        [670, 105, 34.77, 85, 6, 1.11956, 150, 1, 105, 50, 0, 0, 0, 0, 0, 0, 0, 0, 0, 0, 0],
        [670, 105, 34.77, 85, 6, 1.11956, 150, 1, 105, 50, 0, 0, 0, 0, 0, 0, 0, 0, 0, 0, 0],
        [671, 30, 11.81, 23, 2, 1.12, 37.5, 1, 30, 10, 0, 0, 0, 0, 0, 0, 0, 0, 0, 0, 0],
        [671, 30, 11.81, 23, 2, 1.12, 37.5, 1, 30, 10, 0, 0, 0, 0, 0, 0, 0, 0, 0, 0, 0],
        [671, 30, 12.67, 25, 2, 1.12, 37.5, 1, 30, 10, 0, 0, 0, 0, 0, 0, 0, 0, 0, 0, 0],
        [671, 125, 35.77, 85, 6, 1.12, 150, 1, 125, 68, 0, 0, 0, 0, 0, 0, 0, 0, 0, 0, 0],
        [671, 105, 35.77, 85, 6, 1.12, 150, 1, 105, 50, 0, 0, 0, 0, 0, 0, 0, 0, 0, 0, 0],
        [692, 1.54, 0.7, 0.7, 0, 1.09872, 1.9, 1, 1.54, 1.26, 0, 0, 0, 0, 0, 0, 0, 0, 0, 0, 0],
        [694, 1.4, 1, 1, 0, 1.08197, 3.8, 1, 1.4, 0, 0, 0, 0, 0, 0, 0, 0, 0, 0, 0, 0],
        [700, 35, 18, 18, 2, 1.11463, 37.5, 1, 35, 9, 0, 0, 0, 0, 0, 0, 0, 0, 0, 0, 0],
        [700, 20, 30, 30, 2, 1.11463, 37.5, 1, 20, 9, 0, 0, 0, 0, 0, 0, 0, 0, 0, 0, 0],
        [701, 35, 18, 18, 2, 1.11138, 37.5, 1, 35, 9, 0, 0, 0, 0, 0, 0, 0, 0, 0, 0, 0],
        [701, 35, 18, 18, 2, 1.11138, 37.5, 1, 35, 9, 0, 0, 0, 0, 0, 0, 0, 0, 0, 0, 0],
        [701, 35, 18, 18, 2, 1.11138, 37.5, 1, 35, 9, 0, 0, 0, 0, 0, 0, 0, 0, 0, 0, 0],
        [701, 97, 65, 65, 6, 1.11138, 121.3, 1, 97, 30, 0, 0, 0, 0, 0, 0, 0, 0, 0, 0, 0],
        [702, 35, 18, 18, 2, 1.11468, 37.5, 1, 35, 9, 0, 0, 0, 0, 0, 0, 0, 0, 0, 0, 0],
        [702, 30, 18, 18, 2, 1.11468, 37.5, 1, 30, 9, 0, 0, 0, 0, 0, 0, 0, 0, 0, 0, 0],
        [702, 28, 14, 14, 2, 1.11468, 31.5, 1, 28, 9, 0, 0, 0, 0, 0, 0, 0, 0, 0, 0, 0],
        [735, 8, 4, 4, 0, 1.0952, 5.3, 1, 8, 1, 0, 0, 0, 0, 0, 0, 0, 0, 0, 0, 0],
        [735, 2, 2, 2, 0, 1.0952, 2, 1, 2, 1, 0, 0, 0, 0, 0, 0, 0, 0, 0, 0, 0],
        [752, 4.4, 0.2, 4.5, 0.2, 1.09731, 5.8, 1, 4.4, 3.6, 0, 0, 0, 0, 0, 0, 0, 0, 0, 0, 0],
        [766, 2.7, 0, 0, 0, 1.09745, 5.8, 1, 2.7, 0, 0, 0, 0, 0, 0, 0, 0, 0, 0, 0, 0],
        [775, 4.9, 0, 0, 0, 1.09432, 4, 1, 4.9, 0, 0, 0, 0, 0, 0, 0, 0, 0, 0, 0, 0],
        [798, 93, 14.74, 30, 0, 1.11549, 65, 1, 93, 0, 0, 0, 0, 0, 0, 0, 0, 0, 0, 0, 0],
        [798, 35.9, 14.74, 30, 0, 1.11549, 65, 1, 35.9, 0, 0, 0, 0, 0, 0, 0, 0, 0, 0, 0, 0],
        [801, 0, 0, 0, 0, 1, 12.4, 0, 2.5, 0, 0, 0, 0, 0, 0, 0, 0, 0, 0, 0, 0],
        [808, 6, 0, 0, 0, 1.09831, 4.7, 1, 6, 0, 0, 0, 0, 0, 0, 0, 0, 0, 0, 0, 0],
        [809, 6, 0, 0, 0, 1.09858, 5.8, 1, 6, 0, 0, 0, 0, 0, 0, 0, 0, 0, 0, 0, 0],
        [846, 130, 37.67, 149, -33, 1.12, 235, 1, 225, 130, 0, 0, 0, 0, 0, 0, 0, 0, 0, 0, 0],
        [847, 180.38, 76.49, 149, -33, 1.12, 235, 1, 225, 110, 0, 0, 0, 0, 0, 0, 0, 0, 0, 0, 0],
        [854, 2.5, 0, 0, 0, 1.07804, 3, 1, 2.5, 0, 0, 0, 0, 0, 0, 0, 0, 0, 0, 0, 0],
        [860, 12, 0, 0, 0, 1.09667, 12.4, 1, 12, 0, 0, 0, 0, 0, 0, 0, 0, 0, 0, 0, 0],
        [870, 170, 30, 30, 0, 1.11642, 167.6, 1, 170, 66, 0, 0, 0, 0, 0, 0, 0, 0, 0, 0, 0],
        [870, 61, 30, 30, 0, 1.11642, 71.6, 1, 61, 34, 0, 0, 0, 0, 0, 0, 0, 0, 0, 0, 0],
        [876, 21, 0, 0, 0, 1.10874, 8.3, 1, 21, 0, 0, 0, 0, 0, 0, 0, 0, 0, 0, 0, 0],
        [890, 7, 0, 0, 0, 1.1085, 5.6, 1, 7, 0, 0, 0, 0, 0, 0, 0, 0, 0, 0, 0, 0],
        [893, 0, 0, 0, 0, 1, 3, 0, 10, 0, 0, 0, 0, 0, 0, 0, 0, 0, 0, 0, 0],
        [908, 30.4, 0, 0, 0, 1.10489, 3, 1, 30.4, 0, 0, 0, 0, 0, 0, 0, 0, 0, 0, 0, 0],
        [913, 2, 0, 0, 0, 1.06654, 0, 1, 2, 0, 0, 0, 0, 0, 0, 0, 0, 0, 0, 0, 0],
        [918, 0, 0, 0, 0, 1, 1, 0, 1.9, 0, 0, 0, 0, 0, 0, 0, 0, 0, 0, 0, 0],
        [929, 0, 0, 0, 0, 1, 2.1, 0, 2.02, 1.34, 0, 0, 0, 0, 0, 0, 0, 0, 0, 0, 0],
        [934, 129, 28.69, 105, -11, 1.11698, 235, 1, 225, 129, 0, 0, 0, 0, 0, 0, 0, 0, 0, 0, 0],
        [936, 36, 15.64, 30, 0, 1.09445, 36.8, 1, 36, 0, 0, 0, 0, 0, 0, 0, 0, 0, 0, 0, 0],
        [939, 0, 0, 0, 0, 1, 2.8, 0, 2.68, 1.78, 0, 0, 0, 0, 0, 0, 0, 0, 0, 0, 0],
        [959, 101, 25.6, 30, 0, 1.10735, 100.8, 1, 101, 49, 0, 0, 0, 0, 0, 0, 0, 0, 0, 0, 0],
        [965, 0, 0, 0, 0, 1, 1.7, 0, 12, 0, 0, 0, 0, 0, 0, 0, 0, 0, 0, 0, 0],
        [980, 12, 19.57, 30, 0, 1.09905, 9.5, 1, 12, 0, 0, 0, 0, 0, 0, 0, 0, 0, 0, 0, 0],
        [982, 0, 0, 0, 0, 1, 1.6, 0, 1.6, 0.91, 0, 0, 0, 0, 0, 0, 0, 0, 0, 0, 0],
        [984, 6, 0, 0, 0, 1.1072, 5.9, 1, 6, 1, 0, 0, 0, 0, 0, 0, 0, 0, 0, 0, 0],
        [989, 8.3, 0, 0, 0, 1.09313, 10.9, 1, 8.3, 0, 0, 0, 0, 0, 0, 0, 0, 0, 0, 0, 0],
        [993, 68, 9.63, 23, 0, 1.10184, 52, 1, 68, 5, 0, 0, 0, 0, 0, 0, 0, 0, 0, 0, 0],
        [993, 0, 0, 23, 0, 1, 52, 0, 68, 5, 0, 0, 0, 0, 0, 0, 0, 0, 0, 0, 0],
        [993, 0, 0, 11, 0, 1, 24.5, 0, 31, -32, 0, 0, 0, 0, 0, 0, 0, 0, 0, 0, 0],
        [993, 0, 0, 10, 0, 1, 24.5, 0, 31, -32, 0, 0, 0, 0, 0, 0, 0, 0, 0, 0, 0],
        [1008, 0, 0, 10, 0, 1, 69, 0, 50, 0, 0, 0, 0, 0, 0, 0, 0, 0, 0, 0, 0],
        [1008, 92, 40.93, 74, -15, 1.11496, 57.6, 1, 125, 92, 0, 0, 0, 0, 0, 0, 0, 0, 0, 0, 0],
        [1009, 84, 54.39, 74, -15, 1.10191, 57.6, 1, 125, 84, 0, 0, 0, 0, 0, 0, 0, 0, 0, 0, 0],
        [1009, 0, 0, 10, 0, 1, 40, 0, 30, 0, 0, 0, 0, 0, 0, 0, 0, 0, 0, 0, 0],
        [1021, 2.5, 0, 0, 0, 1.10219, 3.3, 1, 2.5, 0, 0, 0, 0, 0, 0, 0, 0, 0, 0, 0, 0],
        [1049, 3.35, 0, 0, 0, 1.08347, 3.8, 1, 3.35, 2.23, 0, 0, 0, 0, 0, 0, 0, 0, 0, 0, 0],
...
    ])

    ## branch data
    # fbus tbus r x b rateA rateB rateC ratio angle status angmin angmax
    ppc['branch'] = array([
        [9, 11, 0.00064, 0.0305, 0, 400, 400, 400, 1.10224, 0, 1, -360, 360],
        [13, 12, 0.00069, 0.03946, 0, 250, 250, 250, 0.9999, 0, 1, -360, 360],
        [21, 19, 0.00088, 0.05709, 0, 330, 330, 330, 0.9999, 0, 1, -360, 360],
        [36, 35, 0.0007, 0.03652, 0, 250, 250, 250, 0.9999, 0, 1, -360, 360],
        [37, 40, 0.00036, 0.02519, 0, 500, 500, 500, 1.0686, 0, 1, -360, 360],
        [38, 41, 0.00036, 0.02519, 0, 500, 500, 500, 1.08671, 0, 1, -360, 360],
        [55, 56, 0.00034, 0.02097, 0, 500, 500, 500, 1.0755, 0, 1, -360, 360],
        [59, 61, 0.00034, 0.02097, 0, 500, 500, 500, 1.05955, 0, 1, -360, 360],
        [70, 72, 0.00081, 0.03, 0, 400, 400, 400, 1.0876, 0, 1, -360, 360],
        [107, 109, 0.00075, 0.02445, -0.00832, 330, 330, 330, 1.06467, 0, 1, -360, 360],
        [108, 110, 0.0004, 0.0253, 0, 500, 500, 500, 1.07013, 0, 1, -360, 360],
        [144, 147, 0.00053, 0.02875, -0.016, 400, 400, 400, 1.07702, 0, 1, -360, 360],
        [173, 174, 0.00064, 0.0305, 0, 400, 400, 400, 1.06172, 0, 1, -360, 360],
        [182, 183, 0.00023, 0.023, 0, 500, 500, 500, 1.07426, 0, 1, -360, 360],
        [181, 184, 0.00023, 0.023, 0, 500, 500, 500, 1.07426, 0, 1, -360, 360],
        [188, 187, 0.00032, 0.04392, 0, 330, 330, 330, 0.9999, 0, 1, -360, 360],
        [191, 193, 0.0003, 0.02732, 0, 500, 500, 500, 1.10871, 0, 1, -360, 360],
        [198, 200, 0.00035, 0.02375, 0, 500, 500, 500, 1.07313, 0, 1, -360, 360],
        [212, 213, 0.00051, 0.0275, 0, 400, 400, 400, 1.10394, 0, 1, -360, 360],
        [217, 215, 0.00084, 0.06858, 0, 250, 250, 250, 0.9999, 0, 1, -360, 360],
        [220, 222, 0.00033, 0.02711, 0, 500, 500, 500, 1.08613, 0, 1, -360, 360],
        [224, 222, 0.00032, 0.0464, 0, 330, 330, 330, 0.9999, 0, 1, -360, 360],
        [231, 229, 0.00113, 0.05647, 0, 330, 330, 330, 0.9999, 0, 1, -360, 360],
        [228, 230, 0.00075, 0.02469, -0.008, 330, 330, 330, 1.04544, 0, 1, -360, 360],
        [3010, 183, 0.00029, 0.00317, 0.09184, 1386, 1386, 1386, 0, 0, 1, -360, 360],
        [3010, 184, 0.0003, 0.00326, 0.09536, 1386, 1386, 1386, 0, 0, 1, -360, 360],
        [244, 84, 0.01475, 0.08595, 0.13036, 415, 415, 415, 0, 0, 1, -360, 360],
        [3007, 92, 0.01244, 0.06959, 0.1181, 412, 412, 412, 0, 0, 1, -360, 360],
        [3007, 122, 0.01207, 0.06905, 0.11519, 412, 412, 412, 0, 0, 1, -360, 360],
        [146, 3008, 0.00168, 0.01604, 0.51488, 1206, 1206, 1206, 0, 0, 1, -360, 360],
        [3011, 172, 0.0018, 0.01616, 0.0484, 457, 457, 457, 0, 0, 1, -360, 360],
        [3011, 173, 0.0018, 0.01616, 0.0484, 457, 457, 457, 0, 0, 1, -360, 360],
        [3012, 63, 0.00223, 0.02209, 0.69011, 831, 831, 831, 0, 0, 1, -360, 360],
        [3012, 64, 0.00223, 0.02209, 0.69011, 831, 831, 831, 0, 0, 1, -360, 360],
        [99, 3006, 0.00293, 0.03054, 0.95472, 1206, 1206, 1206, 0, 0, 1, -360, 360],
        [58, 30, 0.01174, 0.07014, 0.12689, 415, 415, 415, 0, 0, 1, -360, 360],
        [37, 107, 0.00919, 0.06614, 0.10451, 461, 461, 461, 0, 0, 1, -360, 360],
        [38, 108, 0.00822, 0.05767, 0.0982, 465, 465, 465, 0, 0, 1, -360, 360],
        [169, 42, 0.01698, 0.12459, 0.1957, 373, 373, 373, 0, 0, 1, -360, 360],
        [155, 48, 0.01298, 0.06738, 0.10284, 335, 335, 335, 0, 0, 1, -360, 360],
        [154, 27, 0.01068, 0.0475, 0.09495, 415, 415, 415, 0, 0, 1, -360, 360],
        [191, 28, 0.01436, 0.10729, 0.16081, 373, 373, 373, 0, 0, 1, -360, 360],
        [55, 126, 0.01488, 0.08161, 0.1148, 347, 347, 347, 0, 0, 1, -360, 360],
        [54, 108, 0.01116, 0.07171, 0.10367, 362, 362, 362, 0, 0, 1, -360, 360],
        [207, 100, 0.00552, 0.05948, 0.17077, 427, 427, 427, 0, 0, 1, -360, 360],
        [238, 192, 0.01118, 0.06597, 0.10778, 362, 362, 362, 0, 0, 1, -360, 360],
        [226, 191, 0.01682, 0.08909, 0.12993, 400, 400, 400, 0, 0, 1, -360, 360],
        [225, 192, 0.01384, 0.08702, 0.13484, 400, 400, 400, 0, 0, 1, -360, 360],
        [242, 195, 0.01517, 0.09938, 0.14492, 274, 274, 274, 0, 0, 1, -360, 360],
        [59, 16, 0.01347, 0.07316, 0.13418, 377, 377, 377, 0, 0, 1, -360, 360],
        [233, 25, 0.01403, 0.10413, 0.15949, 373, 373, 373, 0, 0, 1, -360, 360],
        [117, 70, 0.00374, 0.0438, 0.10096, 476, 476, 476, 0, 0, 1, -360, 360],
        [190, 99, 0.00194, 0.02007, 0.54307, 1316, 1316, 1316, 0, 0, 1, -360, 360],
        [60, 12, 0.0015, 0.01506, 0.4032, 1386, 1386, 1386, 0, 0, 1, -360, 360],
        [214, 174, 0.00296, 0.03484, 0.9296, 1358, 1358, 1358, 0, 0, 1, -360, 360],
        [138, 72, 0.00169, 0.01931, 0.53814, 866, 866, 866, 0, 0, 1, -360, 360],
        [41, 110, 0.00137, 0.01569, 0.43744, 1386, 1386, 1386, 0, 0, 1, -360, 360],
        [40, 141, 0.00234, 0.02677, 0.74653, 1386, 1386, 1386, 0, 0, 1, -360, 360],
        [34, 222, 0.00217, 0.02513, 0.67098, 1386, 1386, 1386, 0, 0, 1, -360, 360],
        [138, 80, 0.00152, 0.01739, 0.48083, 866, 866, 866, 0, 0, 1, -360, 360],
        [140, 80, 0.00468, 0.05347, 1.48883, 831, 831, 831, 0, 0, 1, -360, 360],
        [99, 44, 0.00355, 0.03617, 0.95894, 1150, 1150, 1150, 0, 0, 1, -360, 360],
        [109, 40, 0.00195, 0.02103, 0.5679, 1316, 1316, 1316, 0, 0, 1, -360, 360],
        [63, 139, 0.00144, 0.01446, 0.51213, 1386, 1386, 1386, 0, 0, 1, -360, 360],
        [14, 6, 0.013, 0.09781, 0.14013, 461, 461, 461, 0, 0, 1, -360, 360],
        [43, 14, 0.00525, 0.03847, 0.06053, 373, 373, 373, 0, 0, 1, -360, 360],
        [33, 6, 0.00457, 0.03351, 0.05245, 427, 427, 427, 0, 0, 1, -360, 360],
        [24, 9, 0.01469, 0.10915, 0.16676, 427, 427, 427, 0, 0, 1, -360, 360],
        [29, 16, 0.01262, 0.09326, 0.14324, 373, 373, 373, 0, 0, 1, -360, 360],
        [37, 7, 0.00924, 0.05052, 0.07698, 366, 366, 366, 0, 0, 1, -360, 360],
        [24, 3, 0.01068, 0.07936, 0.12155, 274, 274, 274, 0, 0, 1, -360, 360],
        [37, 27, 0.00585, 0.04027, 0.07161, 495, 495, 495, 0, 0, 1, -360, 360],
        [39, 26, 0.00585, 0.04027, 0.07161, 495, 495, 495, 0, 0, 1, -360, 360],
        [15, 8, 0.00558, 0.04147, 0.0629, 373, 373, 373, 0, 0, 1, -360, 360],
        [46, 14, 0.00089, 0.0063, 0.0108, 373, 373, 373, 0, 0, 1, -360, 360],
        [31, 15, 0.00442, 0.02374, 0.04477, 415, 415, 415, 0, 0, 1, -360, 360],
        [47, 7, 0.00494, 0.0269, 0.04225, 335, 335, 335, 0, 0, 1, -360, 360],
        [26, 6, 0.00287, 0.01671, 0.02467, 366, 366, 366, 0, 0, 1, -360, 360],
        [37, 1, 0.0012, 0.0089, 0.01512, 747, 747, 747, 0, 0, 1, -360, 360],
        [39, 2, 0.0012, 0.0089, 0.01513, 747, 747, 747, 0, 0, 1, -360, 360],
        [38, 32, 0.00399, 0.02901, 0.04808, 476, 476, 476, 0, 0, 1, -360, 360],
        [34, 12, 0.00298, 0.03445, 0.94221, 831, 831, 831, 0, 0, 1, -360, 360],
        [40, 34, 0.00358, 0.04122, 1.13382, 1386, 1386, 1386, 0, 0, 1, -360, 360],
        [20, 41, 0.00342, 0.03928, 1.08288, 1316, 1316, 1316, 0, 0, 1, -360, 360],
        [11, 22, 0.00286, 0.0335, 0.89392, 1358, 1358, 1358, 0, 0, 1, -360, 360],
        [11, 20, 0.0011, 0.01259, 0.3496, 1358, 1358, 1358, 0, 0, 1, -360, 360],
        [44, 41, 0.00076, 0.00868, 0.24096, 1358, 1358, 1358, 0, 0, 1, -360, 360],
        [79, 74, 0.01054, 0.06151, 0.09306, 316, 316, 316, 0, 0, 1, -360, 360],
        [76, 71, 0.00905, 0.06723, 0.10296, 373, 373, 373, 0, 0, 1, -360, 360],
        [83, 49, 0.0114, 0.06587, 0.09975, 274, 274, 274, 0, 0, 1, -360, 360],
        [66, 49, 0.0107, 0.06628, 0.10825, 377, 377, 377, 0, 0, 1, -360, 360],
        [74, 57, 0.00543, 0.03733, 0.06668, 446, 446, 446, 0, 0, 1, -360, 360],
        [75, 59, 0.00543, 0.03733, 0.06668, 446, 446, 446, 0, 0, 1, -360, 360],
        [75, 49, 0.00657, 0.0481, 0.0727, 419, 419, 419, 0, 0, 1, -360, 360],
        [84, 67, 0.00302, 0.0201, 0.03069, 415, 415, 415, 0, 0, 1, -360, 360],
        [67, 53, 0.007, 0.05138, 0.08084, 373, 373, 373, 0, 0, 1, -360, 360],
        [51, 70, 0.00329, 0.02506, 0.0439, 427, 427, 427, 0, 0, 1, -360, 360],
        [52, 50, 0.00789, 0.05868, 0.08985, 373, 373, 373, 0, 0, 1, -360, 360],
        [71, 52, 0.00558, 0.04062, 0.06491, 446, 446, 446, 0, 0, 1, -360, 360],
        [83, 51, 0.00452, 0.03366, 0.05156, 446, 446, 446, 0, 0, 1, -360, 360],
        [83, 82, 0.00134, 0.00996, 0.01337, 377, 377, 377, 0, 0, 1, -360, 360],
        [78, 57, 0.00618, 0.04353, 0.07649, 446, 446, 446, 0, 0, 1, -360, 360],
        [79, 58, 0.00618, 0.04353, 0.07649, 347, 347, 347, 0, 0, 1, -360, 360],
        [78, 54, 0.01219, 0.0637, 0.09333, 347, 347, 347, 0, 0, 1, -360, 360],
        [77, 55, 0.00246, 0.01826, 0.02798, 373, 373, 373, 0, 0, 1, -360, 360],
        [62, 54, 0.00242, 0.01531, 0.02249, 377, 377, 377, 0, 0, 1, -360, 360],
        [65, 61, 0.0017, 0.01977, 0.53386, 1358, 1358, 1358, 0, 0, 1, -360, 360],
        [73, 69, 0.00116, 0.013, 0.33856, 1358, 1358, 1358, 0, 0, 1, -360, 360],
        [56, 72, 0.00218, 0.02536, 0.68579, 1358, 1358, 1358, 0, 0, 1, -360, 360],
        [80, 73, 0.00105, 0.01123, 0.28195, 1386, 1386, 1386, 0, 0, 1, -360, 360],
        [64, 81, 0.00119, 0.01428, 0.36666, 1386, 1386, 1386, 0, 0, 1, -360, 360],
        [68, 60, 0.00184, 0.02139, 0.5777, 1358, 1358, 1358, 0, 0, 1, -360, 360],
        [113, 144, 0.00488, 0.03362, 0.05961, 446, 446, 446, 0, 0, 1, -360, 360],
        [91, 124, 0.01093, 0.05919, 0.08439, 290, 290, 290, 0, 0, 1, -360, 360],
        [124, 111, 0.00194, 0.01415, 0.0223, 446, 446, 446, 0, 0, 1, -360, 360],
        [95, 150, 0.00192, 0.01355, 0.023, 446, 446, 446, 0, 0, 1, -360, 360],
        [150, 102, 0.00238, 0.01667, 0.02846, 446, 446, 446, 0, 0, 1, -360, 360],
        [123, 150, 0.00279, 0.02017, 0.03204, 446, 446, 446, 0, 0, 1, -360, 360],
        [151, 149, 0.00066, 0.00496, 0.00758, 419, 419, 419, 0, 0, 1, -360, 360],
        [123, 151, 0.00537, 0.04039, 0.06005, 419, 419, 419, 0, 0, 1, -360, 360],
        [108, 151, 0.00083, 0.00525, 0.00868, 305, 305, 305, 0, 0, 1, -360, 360],
        [117, 137, 0.01589, 0.0876, 0.11682, 347, 347, 347, 0, 0, 1, -360, 360],
        [97, 130, 0.00217, 0.01459, 0.02575, 316, 316, 316, 0, 0, 1, -360, 360],
        [134, 118, 0.01773, 0.11678, 0.16361, 335, 335, 335, 0, 0, 1, -360, 360],
        [145, 90, 0.00593, 0.04093, 0.07215, 446, 446, 446, 0, 0, 1, -360, 360],
        [125, 107, 0.0039, 0.02847, 0.04498, 427, 427, 427, 0, 0, 1, -360, 360],
        [136, 95, 0.00816, 0.04242, 0.0612, 385, 385, 385, 0, 0, 1, -360, 360],
        [137, 94, 0.00816, 0.04242, 0.0612, 385, 385, 385, 0, 0, 1, -360, 360],
        [95, 92, 0.00519, 0.03839, 0.05875, 495, 495, 495, 0, 0, 1, -360, 360],
        [94, 89, 0.00213, 0.01403, 0.0226, 335, 335, 335, 0, 0, 1, -360, 360],
        [131, 94, 0.00463, 0.02775, 0.04612, 362, 362, 362, 0, 0, 1, -360, 360],
        [120, 88, 0.01122, 0.07074, 0.11571, 290, 290, 290, 0, 0, 1, -360, 360],
        [127, 135, 0.00601, 0.04147, 0.07364, 427, 427, 427, 0, 0, 1, -360, 360],
        [108, 85, 0.00207, 0.01279, 0.02055, 316, 316, 316, 0, 0, 1, -360, 360],
        [103, 107, 0.00136, 0.0099, 0.01586, 495, 495, 495, 0, 0, 1, -360, 360],
        [148, 104, 0.00058, 0.00417, 0.00684, 446, 446, 446, 0, 0, 1, -360, 360],
        [152, 92, 0.00085, 0.00624, 0.00954, 457, 457, 457, 0, 0, 1, -360, 360],
        [153, 93, 0.00085, 0.00626, 0.00948, 457, 457, 457, 0, 0, 1, -360, 360],
        [119, 93, 0.00159, 0.01112, 0.01913, 492, 492, 492, 0, 0, 1, -360, 360],
        [144, 121, 0.00314, 0.02159, 0.03839, 446, 446, 446, 0, 0, 1, -360, 360],
        [145, 128, 0.00455, 0.03157, 0.05531, 373, 373, 373, 0, 0, 1, -360, 360],
        [121, 101, 0.00145, 0.01008, 0.01719, 373, 373, 373, 0, 0, 1, -360, 360],
        [122, 112, 0.00384, 0.02721, 0.04517, 373, 373, 373, 0, 0, 1, -360, 360],
        [129, 96, 0.00777, 0.04128, 0.06391, 316, 316, 316, 0, 0, 1, -360, 360],
        [106, 94, 0.00446, 0.03041, 0.04867, 290, 290, 290, 0, 0, 1, -360, 360],
        [135, 125, 0.00589, 0.03506, 0.05235, 362, 362, 362, 0, 0, 1, -360, 360],
        [126, 116, 0.00316, 0.02378, 0.03527, 373, 373, 373, 0, 0, 1, -360, 360],
        [134, 95, 0.00184, 0.0126, 0.0224, 373, 373, 373, 0, 0, 1, -360, 360],
        [123, 105, 0.00171, 0.00961, 0.01424, 335, 335, 335, 0, 0, 1, -360, 360],
        [115, 95, 0.00341, 0.02442, 0.03997, 427, 427, 427, 0, 0, 1, -360, 360],
        [135, 94, 0.00184, 0.0126, 0.02239, 373, 373, 373, 0, 0, 1, -360, 360],
        [100, 114, 0.0057, 0.04149, 0.06617, 446, 446, 446, 0, 0, 1, -360, 360],
        [143, 136, 0.00459, 0.02463, 0.03616, 347, 347, 347, 0, 0, 1, -360, 360],
        [142, 127, 0.00215, 0.01333, 0.02211, 335, 335, 335, 0, 0, 1, -360, 360],
        [117, 87, 0.00079, 0.00488, 0.00726, 137, 137, 137, 0, 0, 1, -360, 360],
        [118, 86, 0.00079, 0.00488, 0.00724, 137, 137, 137, 0, 0, 1, -360, 360],
        [110, 146, 0.00241, 0.02782, 0.77066, 1386, 1386, 1386, 0, 0, 1, -360, 360],
        [99, 147, 0.00213, 0.02432, 0.67744, 1386, 1386, 1386, 0, 0, 1, -360, 360],
        [140, 132, 0.00091, 0.0104, 0.28989, 1358, 1358, 1358, 0, 0, 1, -360, 360],
        [141, 139, 0.00312, 0.03563, 0.99107, 831, 831, 831, 0, 0, 1, -360, 360],
        [132, 147, 0.00092, 0.01051, 0.29293, 1358, 1358, 1358, 0, 0, 1, -360, 360],
        [202, 181, 0.01039, 0.08983, 0.11422, 461, 461, 461, 0, 0, 1, -360, 360],
        [203, 180, 0.01039, 0.08983, 0.11422, 461, 461, 461, 0, 0, 1, -360, 360],
        [205, 180, 0.01455, 0.0813, 0.13279, 362, 362, 362, 0, 0, 1, -360, 360],
        [206, 181, 0.01455, 0.0813, 0.13279, 362, 362, 362, 0, 0, 1, -360, 360],
        [158, 206, 0.00519, 0.03965, 0.05836, 427, 427, 427, 0, 0, 1, -360, 360],
        [158, 168, 0.00083, 0.00645, 0.00951, 427, 427, 427, 0, 0, 1, -360, 360],
        [192, 163, 0.01105, 0.08107, 0.12824, 446, 446, 446, 0, 0, 1, -360, 360],
        [159, 182, 0.00597, 0.04473, 0.06735, 427, 427, 427, 0, 0, 1, -360, 360],
        [199, 202, 0.01736, 0.10969, 0.16268, 305, 305, 305, 0, 0, 1, -360, 360],
        [176, 203, 0.00938, 0.06093, 0.08934, 415, 415, 415, 0, 0, 1, -360, 360],
        [179, 181, 0.01246, 0.09134, 0.14349, 476, 476, 476, 0, 0, 1, -360, 360],
        [156, 160, 0.00514, 0.03826, 0.05933, 305, 305, 305, 0, 0, 1, -360, 360],
        [172, 166, 0.01062, 0.0789, 0.12085, 427, 427, 427, 0, 0, 1, -360, 360],
        [178, 209, 0.00769, 0.0569, 0.08673, 373, 373, 373, 0, 0, 1, -360, 360],
        [178, 208, 0.00225, 0.01667, 0.02541, 286, 286, 286, 0, 0, 1, -360, 360],
        [199, 170, 0.01851, 0.1088, 0.14435, 335, 335, 335, 0, 0, 1, -360, 360],
        [204, 198, 0.00236, 0.01411, 0.02031, 229, 229, 229, 0, 0, 1, -360, 360],
        [198, 163, 0.00355, 0.02607, 0.04096, 446, 446, 446, 0, 0, 1, -360, 360],
        [199, 194, 0.013, 0.07589, 0.11484, 362, 362, 362, 0, 0, 1, -360, 360],
        [198, 177, 0.00934, 0.0539, 0.08683, 377, 377, 377, 0, 0, 1, -360, 360],
        [170, 154, 0.00698, 0.0374, 0.05463, 385, 385, 385, 0, 0, 1, -360, 360],
        [169, 155, 0.00436, 0.03202, 0.0503, 476, 476, 476, 0, 0, 1, -360, 360],
        [191, 170, 0.0006, 0.00351, 0.00555, 446, 446, 446, 0, 0, 1, -360, 360],
        [192, 169, 0.0006, 0.00351, 0.00555, 446, 446, 446, 0, 0, 1, -360, 360],
        [179, 166, 0.01058, 0.07762, 0.12203, 373, 373, 373, 0, 0, 1, -360, 360],
        [185, 172, 0.00469, 0.03486, 0.05338, 427, 427, 427, 0, 0, 1, -360, 360],
        [173, 164, 0.00568, 0.04012, 0.07033, 427, 427, 427, 0, 0, 1, -360, 360],
        [196, 164, 0.00105, 0.00733, 0.01258, 373, 373, 373, 0, 0, 1, -360, 360],
        [197, 185, 0.00744, 0.05397, 0.09307, 373, 373, 373, 0, 0, 1, -360, 360],
        [206, 157, 0.00221, 0.01618, 0.02541, 373, 373, 373, 0, 0, 1, -360, 360],
        [207, 205, 0.00525, 0.03837, 0.06052, 373, 373, 373, 0, 0, 1, -360, 360],
        [210, 202, 0.00236, 0.01746, 0.02676, 381, 381, 381, 0, 0, 1, -360, 360],
        [183, 161, 0.00274, 0.02778, 0.69846, 1150, 1150, 1150, 0, 0, 1, -360, 360],
        [189, 162, 0.00171, 0.01741, 0.45456, 1150, 1150, 1150, 0, 0, 1, -360, 360],
        [187, 190, 0.00136, 0.01599, 0.41965, 1621, 1621, 1621, 0, 0, 1, -360, 360],
        [200, 175, 0.00373, 0.04344, 1.172, 831, 831, 831, 0, 0, 1, -360, 360],
        [218, 225, 0.02738, 0.14254, 0.20047, 351, 351, 351, 0, 0, 1, -360, 360],
        [232, 238, 0.02709, 0.15992, 0.26125, 274, 274, 274, 0, 0, 1, -360, 360],
        [219, 243, 0.01909, 0.11277, 0.16673, 274, 274, 274, 0, 0, 1, -360, 360],
...
    ])

    ##-----  OPF Data  -----##
    ## generator cost data
    # 1 startup shutdown n x1 y1 ... xn yn
    # 2 startup shutdown n c(n-1) ... c0
    ppc['gencost'] = array([
        [2, 0, 0, 3, 0, 158.61, 0],
        [2, 0, 0, 3, 0, 158.61, 0],
        [2, 0, 0, 3, 0, 107.03, 0],
        [2, 0, 0, 3, 0, 107.03, 0],
        [2, 0, 0, 3, 0, 107.03, 0],
        [2, 0, 0, 3, 0, 107.03, 0],
        [2, 0, 0, 3, 0, 107.03, 0],
        [2, 0, 0, 3, 0, 107.03, 0],
        [2, 0, 0, 3, 0, 107.03, 0],
        [2, 0, 0, 3, 0, 107.03, 0],
        [2, 0, 0, 3, 0, 107.03, 0],
        [2, 0, 0, 3, 0, 107.03, 0],
        [2, 0, 0, 3, 0, 107.03, 0],
        [2, 0, 0, 3, 0, 143.52, 0],
        [2, 0, 0, 3, 0, 143.52, 0],
        [2, 0, 0, 3, 0, 143.52, 0],
        [2, 0, 0, 3, 0, 143.52, 0],
        [2, 0, 0, 3, 0, 143.52, 0],
        [2, 0, 0, 3, 0, 143.52, 0],
        [2, 0, 0, 3, 0, 143.52, 0],
        [2, 0, 0, 3, 0, 143.52, 0],
        [2, 0, 0, 3, 0, 148.16, 0],
        [2, 0, 0, 3, 0, 148.16, 0],
        [2, 0, 0, 3, 0, 148.16, 0],
        [2, 0, 0, 3, 0, 148.16, 0],
        [2, 0, 0, 3, 0, 148.16, 0],
        [2, 0, 0, 3, 0, 148.16, 0],
        [2, 0, 0, 3, 0, 148.16, 0],
        [2, 0, 0, 3, 0, 0, 0],
        [2, 0, 0, 3, 0, 134.04, 0],
        [2, 0, 0, 3, 0, 134.04, 0],
        [2, 0, 0, 3, 0, 134.04, 0],
        [2, 0, 0, 3, 0, 134.04, 0],
        [2, 0, 0, 3, 0, 134.04, 0],
        [2, 0, 0, 3, 0, 126.62, 0],
        [2, 0, 0, 3, 0, 126.62, 0],
        [2, 0, 0, 3, 0, 0, 0],
        [2, 0, 0, 3, 0, 0, 0],
        [2, 0, 0, 3, 0, 130.49, 0],
        [2, 0, 0, 3, 0, 130.49, 0],
        [2, 0, 0, 3, 0, 132.33, 0],
        [2, 0, 0, 3, 0, 132.33, 0],
        [2, 0, 0, 3, 0, 136.59, 0],
        [2, 0, 0, 3, 0, 136.59, 0],
        [2, 0, 0, 3, 0, 139.96, 0],
        [2, 0, 0, 3, 0, 128.21, 0],
        [2, 0, 0, 3, 0, 128.21, 0],
        [2, 0, 0, 3, 0, 128.21, 0],
        [2, 0, 0, 3, 0, 128.21, 0],
        [2, 0, 0, 3, 0, 128.21, 0],
        [2, 0, 0, 3, 0, 137.4, 0],
        [2, 0, 0, 3, 0, 137.4, 0],
        [2, 0, 0, 3, 0, 137.4, 0],
        [2, 0, 0, 3, 0, 137.4, 0],
        [2, 0, 0, 3, 0, 129.99, 0],
        [2, 0, 0, 3, 0, 129.99, 0],
        [2, 0, 0, 3, 0, 129.99, 0],
        [2, 0, 0, 3, 0, 135.6, 0],
        [2, 0, 0, 3, 0, 135.6, 0],
        [2, 0, 0, 3, 0, 135.6, 0],
        [2, 0, 0, 3, 0, 163.16, 0],
        [2, 0, 0, 3, 0, 163.16, 0],
        [2, 0, 0, 3, 0, 163.16, 0],
        [2, 0, 0, 3, 0, 163.16, 0],
        [2, 0, 0, 3, 0, 163.16, 0],
        [2, 0, 0, 3, 0, 163.16, 0],
        [2, 0, 0, 3, 0, 163.16, 0],
        [2, 0, 0, 3, 0, 139.01, 0],
        [2, 0, 0, 3, 0, 139.01, 0],
        [2, 0, 0, 3, 0, 139.01, 0],
        [2, 0, 0, 3, 0, 139.01, 0],
        [2, 0, 0, 3, 0, 139.01, 0],
        [2, 0, 0, 3, 0, 139.01, 0],
        [2, 0, 0, 3, 0, 139.01, 0],
        [2, 0, 0, 3, 0, 139.01, 0],
        [2, 0, 0, 3, 0, 125.48, 0],
        [2, 0, 0, 3, 0, 125.48, 0],
        [2, 0, 0, 3, 0, 125.48, 0],
        [2, 0, 0, 3, 0, 125.48, 0],
        [2, 0, 0, 3, 0, 125.48, 0],
        [2, 0, 0, 3, 0, 137.4, 0],
        [2, 0, 0, 3, 0, 137.4, 0],
        [2, 0, 0, 3, 0, 137.4, 0],
        [2, 0, 0, 3, 0, 137.4, 0],
        [2, 0, 0, 3, 0, 137.4, 0],
        [2, 0, 0, 3, 0, 0, 0],
        [2, 0, 0, 3, 0, 0, 0],
        [2, 0, 0, 3, 0, 0, 0],
        [2, 0, 0, 3, 0, 0, 0],
        [2, 0, 0, 3, 0, 0, 0],
        [2, 0, 0, 3, 0, 0, 0],
        [2, 0, 0, 3, 0, 0, 0],
        [2, 0, 0, 3, 0, 0, 0],
        [2, 0, 0, 3, 0, 0, 0],
        [2, 0, 0, 3, 0, 0, 0],
        [2, 0, 0, 3, 0, 0, 0],
        [2, 0, 0, 3, 0, 0, 0],
        [2, 0, 0, 3, 0, 0, 0],
        [2, 0, 0, 3, 0, 107.03, 0],
        [2, 0, 0, 3, 0, 0, 0],
        [2, 0, 0, 3, 0, 0, 0],
        [2, 0, 0, 3, 0, 0, 0],
        [2, 0, 0, 3, 0, 0, 0],
        [2, 0, 0, 3, 0, 0, 0],
        [2, 0, 0, 3, 0, 0, 0],
        [2, 0, 0, 3, 0, 0, 0],
        [2, 0, 0, 3, 0, 0, 0],
        [2, 0, 0, 3, 0, 0, 0],
        [2, 0, 0, 3, 0, 0, 0],
        [2, 0, 0, 3, 0, 0, 0],
        [2, 0, 0, 3, 0, 0, 0],
        [2, 0, 0, 3, 0, 0, 0],
        [2, 0, 0, 3, 0, 0, 0],
        [2, 0, 0, 3, 0, 0, 0],
        [2, 0, 0, 3, 0, 0, 0],
        [2, 0, 0, 3, 0, 0, 0],
        [2, 0, 0, 3, 0, 0, 0],
        [2, 0, 0, 3, 0, 0, 0],
        [2, 0, 0, 3, 0, 0, 0],
        [2, 0, 0, 3, 0, 0, 0],
        [2, 0, 0, 3, 0, 0, 0],
        [2, 0, 0, 3, 0, 0, 0],
        [2, 0, 0, 3, 0, 0, 0],
        [2, 0, 0, 3, 0, 158.61, 0],
        [2, 0, 0, 3, 0, 158.61, 0],
        [2, 0, 0, 3, 0, 158.61, 0],
        [2, 0, 0, 3, 0, 0, 0],
        [2, 0, 0, 3, 0, 0, 0],
        [2, 0, 0, 3, 0, 0, 0],
        [2, 0, 0, 3, 0, 0, 0],
        [2, 0, 0, 3, 0, 0, 0],
        [2, 0, 0, 3, 0, 0, 0],
        [2, 0, 0, 3, 0, 0, 0],
        [2, 0, 0, 3, 0, 0, 0],
        [2, 0, 0, 3, 0, 0, 0],
        [2, 0, 0, 3, 0, 0, 0],
        [2, 0, 0, 3, 0, 0, 0],
        [2, 0, 0, 3, 0, 0, 0],
        [2, 0, 0, 3, 0, 0, 0],
        [2, 0, 0, 3, 0, 0, 0],
        [2, 0, 0, 3, 0, 0, 0],
        [2, 0, 0, 3, 0, 0, 0],
        [2, 0, 0, 3, 0, 0, 0],
        [2, 0, 0, 3, 0, 0, 0],
        [2, 0, 0, 3, 0, 0, 0],
        [2, 0, 0, 3, 0, 0, 0],
        [2, 0, 0, 3, 0, 0, 0],
        [2, 0, 0, 3, 0, 0, 0],
        [2, 0, 0, 3, 0, 0, 0],
        [2, 0, 0, 3, 0, 0, 0],
        [2, 0, 0, 3, 0, 0, 0],
        [2, 0, 0, 3, 0, 0, 0],
        [2, 0, 0, 3, 0, 0, 0],
        [2, 0, 0, 3, 0, 0, 0],
        [2, 0, 0, 3, 0, 0, 0],
        [2, 0, 0, 3, 0, 0, 0],
        [2, 0, 0, 3, 0, 0, 0],
        [2, 0, 0, 3, 0, 0, 0],
        [2, 0, 0, 3, 0, 0, 0],
        [2, 0, 0, 3, 0, 0, 0],
        [2, 0, 0, 3, 0, 0, 0],
        [2, 0, 0, 3, 0, 0, 0],
        [2, 0, 0, 3, 0, 0, 0],
        [2, 0, 0, 3, 0, 0, 0],
        [2, 0, 0, 3, 0, 0, 0],
        [2, 0, 0, 3, 0, 0, 0],
        [2, 0, 0, 3, 0, 0, 0],
        [2, 0, 0, 3, 0, 0, 0],
        [2, 0, 0, 3, 0, 143.52, 0],
        [2, 0, 0, 3, 0, 143.52, 0],
        [2, 0, 0, 3, 0, 0, 0],
        [2, 0, 0, 3, 0, 0, 0],
        [2, 0, 0, 3, 0, 0, 0],
        [2, 0, 0, 3, 0, 0, 0],
        [2, 0, 0, 3, 0, 0, 0],
        [2, 0, 0, 3, 0, 0, 0],
        [2, 0, 0, 3, 0, 0, 0],
        [2, 0, 0, 3, 0, 0, 0],
        [2, 0, 0, 3, 0, 0, 0],
        [2, 0, 0, 3, 0, 0, 0],
        [2, 0, 0, 3, 0, 0, 0],
        [2, 0, 0, 3, 0, 148.16, 0],
        [2, 0, 0, 3, 0, 0, 0],
        [2, 0, 0, 3, 0, 0, 0],
        [2, 0, 0, 3, 0, 0, 0],
        [2, 0, 0, 3, 0, 0, 0],
        [2, 0, 0, 3, 0, 0, 0],
        [2, 0, 0, 3, 0, 0, 0],
        [2, 0, 0, 3, 0, 0, 0],
        [2, 0, 0, 3, 0, 0, 0],
        [2, 0, 0, 3, 0, 0, 0],
        [2, 0, 0, 3, 0, 0, 0],
        [2, 0, 0, 3, 0, 0, 0],
        [2, 0, 0, 3, 0, 0, 0],
        [2, 0, 0, 3, 0, 157, 0],
        [2, 0, 0, 3, 0, 157, 0],
        [2, 0, 0, 3, 0, 157, 0],
        [2, 0, 0, 3, 0, 157, 0],
        [2, 0, 0, 3, 0, 0, 0],
        [2, 0, 0, 3, 0, 0, 0],
...
    ])

    return ppc
